OPT_V9/My_campus_w_initial_sub_3_active_25_03_11_44/powerflow_results_t21.txt
Pandapower Network Debug Info
==================================================

BUS:
       vm_pu  va_degree      p_mw    q_mvar
0   0.992691   0.113004  0.001111  0.000983
1   0.988359   0.172907  0.001603  0.001767
2   0.984465   0.237725  0.002045  0.002811
3   0.988518   0.203164  0.002720  0.004433
4   0.989380   0.240365  0.002904  0.005134
5   0.992732   0.156417  0.002903  0.005431
6   0.991093   0.171551  0.001015  0.001090
7   0.997267   0.026644  0.001983  0.002202
8   0.997881   0.037713  0.002087  0.002457
9   0.999880   0.000864  0.011513  0.011258
10  0.999867   0.000932  0.011531  0.010100
11  0.999857   0.000996  0.011041  0.010889
12  0.999769   0.001146  0.009750  0.006366
13  0.999749   0.001169  0.013684  0.011556
14  0.999738   0.001144  0.014173  0.010134
15  0.999926   0.000613  0.000000  0.000000
16  0.999926   0.000619  0.000000  0.000000
17  0.999774   0.001170  0.000000  0.000000
18  0.999774   0.001180  0.000000  0.000000
19  1.000000   0.000000 -0.041715 -0.047343
20  1.000000   0.000006  0.000000  0.000000
21  1.000000   0.000000 -0.048644 -0.049467
22  1.000000   0.000007  0.000000  0.000000
--------------------------------------------------

LINE:
    p_from_mw  q_from_mvar   p_to_mw  q_to_mvar         pl_mw       ql_mvar  i_from_ka   i_to_ka      i_ka  vm_from_pu  va_from_degree  vm_to_pu  va_to_degree  loading_percent
0    0.041705     0.043343 -0.041701  -0.043340  3.538751e-06  2.759223e-06   0.002315  0.002315  0.002315    1.000000        0.000006  0.999926      0.000613         1.006575
1    0.048634     0.045468 -0.048622  -0.045458  1.192302e-05  9.296578e-06   0.002563  0.002563  0.002563    1.000000        0.000007  0.999774      0.001170         1.114161
2    0.034087     0.032248 -0.034086  -0.032247  1.702944e-06  1.327813e-06   0.001806  0.001806  0.001806    0.999926        0.000613  0.999880      0.000864         0.785329
3    0.009751     0.006366 -0.009750  -0.006366  4.691297e-08  3.657881e-08   0.000448  0.000448  0.000448    0.999774        0.001170  0.999769      0.001146         0.194913
4    0.027858     0.021691 -0.027857  -0.021691  6.819199e-07  5.317042e-07   0.001359  0.001359  0.001359    0.999774        0.001170  0.999749      0.001169         0.590984
5    0.007604     0.010092 -0.007529  -0.010033  7.468713e-05  5.823479e-05   0.018239  0.018239  0.018239    0.999926        0.000619  0.992691      0.113004         7.930146
6    0.003966     0.006558 -0.003920  -0.006523  4.558977e-05  3.554709e-05   0.011065  0.011065  0.011065    0.999774        0.001180  0.992732      0.156417         4.810669
7    0.001989     0.002207 -0.001983  -0.002202  5.965841e-06  4.651664e-06   0.004289  0.004289  0.004289    0.999774        0.001180  0.997267      0.026644         1.864834
8    0.005049     0.007637 -0.005035  -0.007625  1.441734e-05  1.124144e-05   0.013217  0.013217  0.013217    0.999774        0.001180  0.997881      0.037713         5.746571
9   -0.022573    -0.020989  0.022573   0.020989  3.286383e-07  2.562447e-07   0.001187  0.001187  0.001187    0.999867        0.000932  0.999880      0.000864         0.515885
10  -0.011041    -0.010889  0.011041   0.010889  1.176389e-07  9.172501e-08   0.000597  0.000597  0.000597    0.999857        0.000996  0.999867      0.000932         0.259544
11  -0.014173    -0.010134  0.014173   0.010134  1.485430e-07  1.158214e-07   0.000671  0.000671  0.000671    0.999738        0.001144  0.999749      0.001169         0.291650
12  -0.003659    -0.004587  0.003680   0.004603  2.085042e-05  1.625741e-05   0.008569  0.008569  0.008569    0.988359        0.172907  0.992691      0.113004         3.725510
13  -0.002720    -0.004433  0.002738   0.004448  1.848281e-05  1.441135e-05   0.007594  0.007594  0.007594    0.988518        0.203164  0.992691      0.113004         3.301793
14  -0.002045    -0.002811  0.002056   0.002820  1.128041e-05  8.795521e-06   0.005097  0.005097  0.005097    0.984465        0.237725  0.988359      0.172907         2.216089
15   0.002947     0.005168 -0.002904  -0.005134  4.325146e-05  3.372388e-05   0.008606  0.008606  0.008606    0.997881        0.037713  0.989380      0.240365         3.741541
16  -0.001015    -0.001090  0.001017   0.001092  1.967532e-06  1.534117e-06   0.002170  0.002170  0.002170    0.991093        0.171551  0.992732      0.156417         0.943404
--------------------------------------------------

TRAFO:
    p_hv_mw  q_hv_mvar   p_lv_mw  q_lv_mvar    pl_mw   ql_mvar   i_hv_ka   i_lv_ka  vm_hv_pu  va_hv_degree  vm_lv_pu  va_lv_degree  loading_percent
0  0.007614   0.011091 -0.007604  -0.010092  0.00001  0.001000  0.000518  0.018239  0.999926      0.000613  0.999926      0.000619         0.134543
1  0.011014   0.017401 -0.011004  -0.016402  0.00001  0.000999  0.000793  0.028515  0.999774      0.001170  0.999774      0.001180         0.205986
2  0.041715   0.047343 -0.041705  -0.043343  0.00001  0.004000  0.000520  0.002315  1.000000      0.000000  1.000000      0.000006         0.157747
3  0.048644   0.049467 -0.048634  -0.045468  0.00001  0.004000  0.000572  0.002563  1.000000      0.000000  1.000000      0.000007         0.173445
--------------------------------------------------
